49

S     11.86541 10.04274 20.16854    
C     12.29921 7.95657 22.46532     
C     12.04720 7.15954 23.58035     
C     12.37804 7.61515 24.85803     
C     12.96122 8.87605 25.00733     
C     13.21024 9.68001 23.89564     
C     12.88278 9.23297 22.60191     
C     16.27996 10.13305 22.10585    
C     17.41814 10.33680 22.88482    
 C    17.64193 11.56921 23.49666    
 C    16.70026 12.58640 23.34236    
 C    15.56236 12.38149 22.56074    
 C    15.33644 11.15495 21.91468    
 C    15.23020 13.69184 19.47008    
 C    16.18898 14.45619 18.80368    
 C    16.86855 13.92948 17.70339    
 C    16.57208 12.63443 17.27056    
 C    15.62413 11.86724 17.94817    
 C    14.94508 12.38133 19.06429    
 C    12.32770 12.84599 17.32396    
 C    11.75623 13.19606 16.10106    
 C    10.97310 12.28048 15.39254    
 C    10.75870 11.00824 15.92839    
 C    11.33770 10.65062 17.14599    
 C    12.14418 11.55677 17.86351    
 C    13.09176 10.07856 21.41011    
 C    14.12226 10.93975 21.06540    
 C    13.92437 11.54649 19.76287    
 C    12.73837 11.16214 19.15592    
 H    12.05726 7.57897 21.47554     
 H    11.59602 6.18070 23.44784     
 H    12.16986 6.99665 25.72548     
 H    13.21450 9.24471 25.99849     
 H    13.64297 10.66619 24.02633    
 H    16.13867 9.16493 21.64179     
 H    18.13562 9.52910 22.99756     
 H    18.54021 11.73830 24.07934    
 H    16.85062 13.54407 23.83271    
 H    14.83197 13.17532 22.46941    
 H    14.67174 14.11860 20.29481    
 H    16.40041 15.46609 19.14550    
 H    17.61351 14.52255 17.18366    
 H    17.07708 12.21454 16.40431    
 H    15.40086 10.86201 17.60638    
 H    12.91349 13.57560 17.87111    
 H    11.92166 14.19014 15.69396    
 H    10.54066 12.55816 14.43596    
 H    10.15047 10.28633 15.38896    
 H    11.16867 9.65406 17.54458     

