49
 generated by VMD
 S         0.106634       -1.306511        0.948088
 C        -1.439693       -1.419817        0.175945
 C         0.950627       -1.690529       -0.514914
 C        -1.304656       -1.742546       -1.152999
 C         0.072169       -1.894140       -1.551900
 C        -2.665204       -1.132029        0.946940
 C         2.422396       -1.803982       -0.502182
 C        -2.453025       -1.927150       -2.075101
 C         0.495882       -2.222588       -2.935985
 C        -3.665956       -0.310557        0.413000
 C         3.206853       -0.843368        0.146010
 C        -2.843006       -1.663105        2.229378
 C         3.058830       -2.883432       -1.127604
 C        -3.472591       -2.831516       -1.762903
 C        -0.001331       -3.356455       -3.586061
 C        -2.535173       -1.203487       -3.268851
 C         1.400839       -1.399339       -3.612870
 C        -4.817653       -0.038822        1.140591
 C         4.593119       -0.956798        0.166452
 C        -3.993500       -1.382760        2.959299
 C         4.443767       -2.990045       -1.112883
 C        -4.553588       -3.003384       -2.620517
 C         0.402302       -3.662470       -4.881100
 C        -3.615449       -1.376531       -4.127192
 C         1.805613       -1.706234       -4.907309
 C        -4.985762       -0.572460        2.416299
 C         5.216202       -2.028514       -0.465377
 C        -4.628353       -2.276049       -3.805264
 C         1.307662       -2.839072       -5.545239
 H        -3.535083        0.113170       -0.577371
 H         2.726609        0.005837        0.624674
 H        -2.079949       -2.312051        2.650707
 H         2.460014       -3.638492       -1.626413
 H        -3.414973       -3.396673       -0.837321
 H        -0.712739       -3.996490       -3.072617
 H        -1.743021       -0.506301       -3.525357
 H         1.790893       -0.517214       -3.113729
 H        -5.584719        0.598641        0.711119
 H         5.186659       -0.200867        0.672008
 H        -4.116211       -1.805323        3.952119
 H         4.921475       -3.832406       -1.604227
 H        -5.338296       -3.708599       -2.362883
 H         0.007346       -4.546695       -5.372574
 H        -3.665067       -0.807079       -5.050584
 H         2.510492       -1.057518       -5.418952
 H        -5.885750       -0.356436        2.984248
 H         6.298562       -2.115428       -0.452911
 H        -5.471595       -2.411015       -4.476238
 H         1.622214       -3.078415       -6.556798

