49 

S         12.00798        9.73510       19.99535  
 C         12.23204        7.93844       22.45337  
 C         11.99212        7.16916       23.58024  
 C         12.38890        7.62087       24.84715  
 C         13.04240        8.85782       24.96209  
 C         13.30742        9.63220       23.84263  
 C         12.90760        9.19687       22.54222  
 C         16.20894       10.17132       22.14541  
 C         17.36220       10.36589       22.90126  
 C         17.61672       11.60424       23.49241  
 C         16.69303       12.63631       23.33212  
 C         15.54747       12.44725       22.55749  
 C         15.28829       11.21537       21.93267  
 C         15.24243       13.70688       19.50819  
 C         16.20229       14.46055       18.83176  
 C         16.85743       13.93299       17.71717  
 C         16.52543       12.64776       17.27312  
 C         15.56659       11.89682       17.94843  
 C         14.92406       12.40348       19.09548  
 C         12.40733       12.77998       17.29545  
 C         11.81141       13.15374       16.10094  
 C         10.95767       12.27587       15.41143  
 C         10.68456       11.01502       15.96492  
 C         11.25884       10.62960       17.16677  
 C         12.16962       11.48704       17.86587  
 C         13.11607        9.98644       21.36337  
 C         14.09023       10.99665       21.06960  
 C         13.91608       11.56987       19.79532  
 C         12.76951       11.05705       19.09105  
 H         11.94023        7.55865       21.47787  
 H         11.49330        6.21021       23.47690  
 H         12.17054        7.02619       25.72847  
 H         13.33265        9.22621       25.94327  
 H         13.78148       10.60045       23.95419  
 H         16.04154        9.20032       21.69697  
 H         18.06841        9.54832       23.01529  
 H         18.52328       11.76442       24.06493  
 H         16.86310       13.59504       23.81313  
 H         14.83309       13.25323       22.46263  
 H         14.69304       14.13748       20.33548  
 H         16.42995       15.46690       19.17403  
 H         17.60499       14.51759       17.19155  
 H         17.01289       12.22479       16.39820  
 H         15.31778       10.90039       17.59871  
 H         13.04171       13.48320       17.82051  
 H         12.00770       14.14089       15.68985  
 H         10.51623       12.57381       14.46534  
 H         10.02389       10.32778       15.44141  
 H         11.04114        9.64386       17.56908  

