49

S 11.825225856 9.467743688 19.536724416
C 12.452187900 8.223856598 23.150374676
C 12.246894888 7.498853546 24.287362759
C 12.564219910 8.049865585 25.542047848
C 13.079863948 9.313949677 25.621013857
C 13.300076965 10.069232727 24.459259771
C 13.000717939 9.535573691 23.211419679
C 16.317788180 10.246427740 22.051756600
C 17.471464265 10.427833754 22.795166649
C 17.703513283 11.628333845 23.441806700
C 16.752845212 12.631586915 23.363316691
C 15.593962129 12.443835901 22.626719640
C 15.366922112 11.255424817 21.940243591
C 15.125018094 13.478923978 19.527747416
C 16.055767161 14.238198031 18.837864365
C 16.703694208 13.714233993 17.729496283
C 16.399487189 12.426994899 17.314528253
C 15.469397122 11.671459843 18.010804305
C 14.824772072 12.178599881 19.133653386
C 12.358543895 12.859124930 17.513442266
C 11.884995860 13.409519969 16.305364183
C 11.157248806 12.659583916 15.427789117
C 10.898893789 11.313764821 15.736236142
C 11.386372823 10.764879778 16.884929224
C 12.143377881 11.523277836 17.821664291
C 13.147775953 10.252589744 21.962234589
C 14.058509017 10.976394798 21.227258535
C 13.801051998 11.350632822 19.862932439
C 12.622451913 10.843017783 19.092604382
H 12.196643883 7.812098568 22.191716605
H 11.829856855 6.509599473 24.229305755
H 12.395638898 7.475043544 26.433238915
H 13.313559967 9.744339704 26.576797924
H 13.715791991 11.056105799 24.534372777
H 16.160168170 9.299503672 21.572552564
H 18.189762319 9.631266697 22.861076654
H 18.607892347 11.777655853 23.998408740
H 16.909896225 13.561137982 23.879734730
H 14.860250078 13.225701959 22.606003637
H 14.608966060 13.909887009 20.363303475
H 16.268279177 15.240865106 19.163487389
H 17.425660265 14.304289036 17.193378244
H 16.877752221 12.006700869 16.447678191
H 15.236150105 10.681704772 17.666527281
H 12.884537932 13.501954979 18.186970316
H 12.119971879 14.428015043 16.061741164
H 10.791102781 13.087003946 14.512583049
H 10.324944748 10.705802774 15.059257089
H 11.171845811 9.740794703 17.099348236
